12
	Energy:      10.5736998
C         -1.24005        2.29010       -0.00000
C         -0.74960        0.97984       -0.00000
C         -1.63910       -0.10003       -0.00000
C         -3.01904        0.13036       -0.00000
C         -3.50949        1.44062       -0.00000
C         -2.61999        2.52049       -0.00000
H         -4.57705        1.61885       -0.00000
H         -2.99942        3.53414       -0.00000
H         -0.55191        3.12552       -0.00000
H          0.31796        0.80160       -0.00000
H         -1.25967       -1.11369       -0.00000
H         -3.70718       -0.70506       -0.00000
